                    case_name DLC  (AeroDyn15, tau1_const)  (QBladeOcean, PEAKPERIOD)  (QBladeOcean, RANDSEED)  (QBladeOcean, SIGHEIGHT)  (QSim, INITIAL_PITCH)  (QSim, INITIAL_YAW)  (QSim, MEANINF)  (QSim, RPMPRESCRIBED)  (QSim, STOREFROM)  (QSim, TMax)  (QTurbSim, RandSeed1)  (QSim, WNDTYPE)                                     (QTurbSim, TurbSimInp)
DLC1.1_0_MED15-308_v20.4.0_00 1.1                94.943202                   9.788171                304524126                  1.589253               5.026225                    0              3.0               3.342254               10.0         110.0             1501552846                1  wind/MED15-308_v20.4.0_NTM_U3.000000_Seed1501552846.0.bts
DLC1.1_0_MED15-308_v20.4.0_01 1.1                53.176581                   9.788171               1192975140                  1.589253               2.402146                    0              5.0               3.342254               10.0         110.0              488200390                1   wind/MED15-308_v20.4.0_NTM_U5.000000_Seed488200390.0.bts
DLC1.1_0_MED15-308_v20.4.0_02 1.1                41.562213                   9.992163               1668389755                  1.796850               0.000000                    0              7.0               4.340589               10.0         110.0             1693606511                1  wind/MED15-308_v20.4.0_NTM_U7.000000_Seed1693606511.0.bts
DLC1.1_0_MED15-308_v20.4.0_03 1.1                27.398421                  10.246189                489172031                  2.066758               2.982726                    0              9.0               5.580758               10.0         110.0              680233354                1   wind/MED15-308_v20.4.0_NTM_U9.000000_Seed680233354.0.bts
DLC1.1_0_MED15-308_v20.4.0_04 1.1                20.720692                  10.394399                349375909                  2.231493               7.005121                    0             10.0               5.670197               10.0         110.0              438466540                1  wind/MED15-308_v20.4.0_NTM_U10.000000_Seed438466540.0.bts
DLC1.1_0_MED15-308_v20.4.0_05 1.1                17.525760                  10.542609                208787680                  2.396227               9.422538                    0             11.0               5.670197               10.0         110.0             1712329281                1 wind/MED15-308_v20.4.0_NTM_U11.000000_Seed1712329281.0.bts
DLC1.1_0_MED15-308_v20.4.0_06 1.1                13.994454                  10.877767                426140584                  2.785550              12.864303                    0             13.0               5.670197               10.0         110.0             1380152456                1 wind/MED15-308_v20.4.0_NTM_U13.000000_Seed1380152456.0.bts
DLC1.1_0_MED15-308_v20.4.0_07 1.1                11.832094                  11.251413                 37937012                  3.237992              15.637596                    0             15.0               5.670197               10.0         110.0             1452245847                1 wind/MED15-308_v20.4.0_NTM_U15.000000_Seed1452245847.0.bts
DLC1.1_0_MED15-308_v20.4.0_08 1.1                10.293384                  11.664337               1601914564                  3.757419              18.096392                    0             17.0               5.670197               10.0         110.0             2122694022                1 wind/MED15-308_v20.4.0_NTM_U17.000000_Seed2122694022.0.bts
DLC1.1_0_MED15-308_v20.4.0_09 1.1                 9.128467                  12.116604               1619243266                  4.346084              20.354876                    0             19.0               5.670197               10.0         110.0              839901364                1  wind/MED15-308_v20.4.0_NTM_U19.000000_Seed839901364.0.bts
DLC1.1_0_MED15-308_v20.4.0_10 1.1                 7.826554                  12.871907                413287548                  5.368003              23.478309                    0             22.0               5.670197               10.0         110.0             1802651553                1 wind/MED15-308_v20.4.0_NTM_U22.000000_Seed1802651553.0.bts
DLC1.1_0_MED15-308_v20.4.0_11 1.1                 6.842042                  13.702555                918595805                  6.526990              26.384806                    0             25.0               5.670197               10.0         110.0              714712467                1  wind/MED15-308_v20.4.0_NTM_U25.000000_Seed714712467.0.bts