                              case_name DLC  (AeroDyn15, tau1_const)  (QBladeOcean, PEAKPERIOD)  (QBladeOcean, RANDSEED)  (QBladeOcean, SIGHEIGHT)  (QSim, INITIAL_PITCH)  (QSim, INITIAL_YAW)  (QSim, MEANINF)  (QSim, RPMPRESCRIBED)  (QSim, STOREFROM)  (QSim, TMax)  (QTurbSim, RandSeed1)  (QSim, WNDTYPE)                                               (QTurbSim, TurbSimInp)
DLC1.1_0_MED15-300_v16.2.3_SONATA_PC_00 1.1                85.434848                   9.788171                304524126                  1.589253               4.638236                    0              3.0               3.342254              100.0         400.0             1501552846                1  wind/MED15-300_v16.2.3_SONATA_PC_NTM_U3.000000_Seed1501552846.0.bts
DLC1.1_0_MED15-300_v16.2.3_SONATA_PC_01 1.1                52.664355                   9.788171               1192975140                  1.589253               0.779867                    0              5.0               3.350744              100.0         400.0              488200390                1   wind/MED15-300_v16.2.3_SONATA_PC_NTM_U5.000000_Seed488200390.0.bts
DLC1.1_0_MED15-300_v16.2.3_SONATA_PC_02 1.1                37.442817                   9.992163               1668389755                  1.796850               0.000000                    0              7.0               4.426826              100.0         400.0             1693606511                1  wind/MED15-300_v16.2.3_SONATA_PC_NTM_U7.000000_Seed1693606511.0.bts
DLC1.1_0_MED15-300_v16.2.3_SONATA_PC_03 1.1                25.786283                  10.246189                489172031                  2.066758               2.726708                    0              9.0               5.691634              100.0         400.0              680233354                1   wind/MED15-300_v16.2.3_SONATA_PC_NTM_U9.000000_Seed680233354.0.bts
DLC1.1_0_MED15-300_v16.2.3_SONATA_PC_04 1.1                20.575473                  10.394399                349375909                  2.231493               5.708606                    0             10.0               5.992162              100.0         400.0              438466540                1  wind/MED15-300_v16.2.3_SONATA_PC_NTM_U10.000000_Seed438466540.0.bts
DLC1.1_0_MED15-300_v16.2.3_SONATA_PC_05 1.1                17.301896                  10.542609                208787680                  2.396227               8.170959                    0             11.0               5.992162              100.0         400.0             1712329281                1 wind/MED15-300_v16.2.3_SONATA_PC_NTM_U11.000000_Seed1712329281.0.bts
DLC1.1_0_MED15-300_v16.2.3_SONATA_PC_06 1.1                13.766563                  10.877767                426140584                  2.785550              11.605391                    0             13.0               5.992162              100.0         400.0             1380152456                1 wind/MED15-300_v16.2.3_SONATA_PC_NTM_U13.000000_Seed1380152456.0.bts
DLC1.1_0_MED15-300_v16.2.3_SONATA_PC_07 1.1                11.625094                  11.251413                 37937012                  3.237992              14.347290                    0             15.0               5.992162              100.0         400.0             1452245847                1 wind/MED15-300_v16.2.3_SONATA_PC_NTM_U15.000000_Seed1452245847.0.bts
DLC1.1_0_MED15-300_v16.2.3_SONATA_PC_08 1.1                10.106826                  11.664337               1601914564                  3.757419              16.770658                    0             17.0               5.992162              100.0         400.0             2122694022                1 wind/MED15-300_v16.2.3_SONATA_PC_NTM_U17.000000_Seed2122694022.0.bts
DLC1.1_0_MED15-300_v16.2.3_SONATA_PC_09 1.1                 8.959636                  12.116604               1619243266                  4.346084              18.993743                    0             19.0               5.992162              100.0         400.0              839901364                1  wind/MED15-300_v16.2.3_SONATA_PC_NTM_U19.000000_Seed839901364.0.bts
DLC1.1_0_MED15-300_v16.2.3_SONATA_PC_10 1.1                 7.679300                  12.871907                413287548                  5.368003              22.066693                    0             22.0               5.992162              100.0         400.0             1802651553                1 wind/MED15-300_v16.2.3_SONATA_PC_NTM_U22.000000_Seed1802651553.0.bts
DLC1.1_0_MED15-300_v16.2.3_SONATA_PC_11 1.1                 6.711985                  13.702555                918595805                  6.526990              24.926507                    0             25.0               5.992162              100.0         400.0              714712467                1  wind/MED15-300_v16.2.3_SONATA_PC_NTM_U25.000000_Seed714712467.0.bts